       8
 i =     1000, time =      500.000, E =       -14.9521706120
  C         0.0143630623       -0.0038468257       -0.0019841847
  C        -0.0108305312        0.0021670330        0.0156844897
  H        -0.0029146508       -0.0008798348       -0.0034315608
  H        -0.0040917238        0.0006014607        0.0045060636
  H        -0.0023519290        0.0034704266       -0.0056300481
  H         0.0015160519       -0.0000231537       -0.0033839893
  H         0.0018591099       -0.0008536621       -0.0033992981
  H         0.0024376725       -0.0006751583       -0.0023771747
