       8
 i =     1000, time =      500.000, E =       -14.9521706120
  C        -2.7098864130        1.2966341475        0.4128012688
  C        -1.3895179096        1.2699628837       -0.4249581884
  H        -2.7759311888        2.2182101349        1.0110291607
  H        -3.5642285323        1.2242912433       -0.2687886203
  H        -2.7358084999        0.4558240136        1.1327743727
  H        -0.5249881438        1.3621915035        0.2469355609
  H        -1.3016550300        0.3267260441       -0.9688584070
  H        -1.3735886392        2.1071463868       -1.1299804081
