       8
 i =     1000, time =      500.000, E =       -14.9523092635
  C         0.0055159217       -0.0040799345       -0.0093984387
  C        -0.0085432862       -0.0039664010        0.0077769364
  H         0.0047158050        0.0029844172        0.0074279476
  H        -0.0017635234        0.0041258547       -0.0027570602
  H        -0.0020398551       -0.0011608290        0.0006708067
  H        -0.0021656371        0.0007811130       -0.0048610341
  H         0.0012030904        0.0064528178        0.0002671303
  H         0.0030762267       -0.0051196528        0.0008858057
